/*--------------------------------*- C++ -*----------------------------------*\
| =========                 |                                                 |
| \\      /  F ield         | OpenFOAM: The Open Source CFD Toolbox           |
|  \\    /   O peration     | Version:  v2012                                 |
|   \\  /    A nd           | Website:  www.openfoam.com                      |
|    \\/     M anipulation  |                                                 |
\*---------------------------------------------------------------------------*/
FoamFile
{
    version     2.0;
    format      ascii;
    class       volScalarField;
    location    "0";
    object      omega;
}
// * * * * * * * * * * * * * * * * * * * * * * * * * * * * * * * * * * * * * //

dimensions      [0 0 -1 0 0 0 0];


internalField   uniform 2.45;

boundaryField
{
    inlet
    {
        type            fixedValue;
        value           uniform 2.45;
    }
    outlet
    {
        type            zeroGradient;
    }
    side
    {
        type            omegaWallFunction;
        value           uniform 2.45;
    }
    wing
    {
        type            omegaWallFunction;
        value           uniform 2.45;
    }
}


// ************************************************************************* //
