/*--------------------------------*- C++ -*----------------------------------*\
| =========                 |                                                 |
| \\      /  F ield         | OpenFOAM: The Open Source CFD Toolbox           |
|  \\    /   O peration     | Version:  v2012                                 |
|   \\  /    A nd           | Website:  www.openfoam.com                      |
|    \\/     M anipulation  |                                                 |
\*---------------------------------------------------------------------------*/
FoamFile
{
    version     2.0;
    format      ascii;
    class       extendedFeatureEdgeMesh;
    location    "constant/extendedFeatureEdgeMesh";
    object      AMI.extendedFeatureEdgeMesh;
}
// * * * * * * * * * * * * * * * * * * * * * * * * * * * * * * * * * * * * * //

// points

144
(
(0.0069026402 0.54857802 4.5668398e-06)
(0.0049999999 0.505 4.5668398e-06)
(0.0069026402 0.54857802 2.50001)
(0.0125961 0.591824 2.50001)
(0.0125961 0.591824 4.5668398e-06)
(0.0220371 0.63441002 2.50001)
(0.0220371 0.63441002 4.5668398e-06)
(0.035153698 0.67601001 2.50001)
(0.035153698 0.67601001 4.5668398e-06)
(0.051846098 0.71630901 2.50001)
(0.051846098 0.71630901 4.5668398e-06)
(0.071987301 0.755 2.50001)
(0.071987301 0.755 4.5668398e-06)
(0.095423996 0.79178798 2.50001)
(0.095423996 0.79178798 4.5668398e-06)
(0.121978 0.82639402 2.50001)
(0.121978 0.82639402 4.5668398e-06)
(0.151447 0.85855299 2.50001)
(0.151447 0.85855299 4.5668398e-06)
(0.183606 0.88802201 2.50001)
(0.183606 0.88802201 4.5668398e-06)
(0.21821199 0.91457599 2.50001)
(0.21821199 0.91457599 4.5668398e-06)
(0.255 0.93801302 2.50001)
(0.255 0.93801302 4.5668398e-06)
(0.29369101 0.95815402 2.50001)
(0.29369101 0.95815402 4.5668398e-06)
(0.33399001 0.97484601 2.50001)
(0.33399001 0.97484601 4.5668398e-06)
(0.37559101 0.98796302 2.50001)
(0.37559101 0.98796302 4.5668398e-06)
(0.418176 0.99740398 2.50001)
(0.418176 0.99740398 4.5668398e-06)
(0.461422 1.0031 2.50001)
(0.461422 1.0031 4.5668398e-06)
(0.505 1.005 2.50001)
(0.505 1.005 4.5668398e-06)
(0.54857802 1.0031 2.50001)
(0.54857802 1.0031 4.5668398e-06)
(0.591824 0.99740398 2.50001)
(0.591824 0.99740398 4.5668398e-06)
(0.63441002 0.98796302 2.50001)
(0.63441002 0.98796302 4.5668398e-06)
(0.67601001 0.97484601 2.50001)
(0.67601001 0.97484601 4.5668398e-06)
(0.71630901 0.95815402 2.50001)
(0.71630901 0.95815402 4.5668398e-06)
(0.755 0.93801302 2.50001)
(0.755 0.93801302 4.5668398e-06)
(0.79178798 0.91457599 2.50001)
(0.79178798 0.91457599 4.5668398e-06)
(0.82639402 0.88802201 2.50001)
(0.82639402 0.88802201 4.5668398e-06)
(0.85855299 0.85855299 2.50001)
(0.85855299 0.85855299 4.5668398e-06)
(0.88802201 0.82639402 2.50001)
(0.88802201 0.82639402 4.5668398e-06)
(0.91457599 0.79178798 2.50001)
(0.91457599 0.79178798 4.5668398e-06)
(0.93801302 0.755 2.50001)
(0.93801302 0.755 4.5668398e-06)
(0.95815402 0.71630901 2.50001)
(0.95815402 0.71630901 4.5668398e-06)
(0.97484601 0.67601001 2.50001)
(0.97484601 0.67601001 4.5668398e-06)
(0.98796302 0.63441002 2.50001)
(0.98796302 0.63441002 4.5668398e-06)
(0.99740398 0.591824 2.50001)
(0.99740398 0.591824 4.5668398e-06)
(1.0031 0.54857802 2.50001)
(1.0031 0.54857802 4.5668398e-06)
(1.005 0.505 2.50001)
(1.005 0.505 4.5668398e-06)
(1.0031 0.461422 2.50001)
(1.0031 0.461422 4.5668398e-06)
(0.99740398 0.418176 2.50001)
(0.99740398 0.418176 4.5668398e-06)
(0.98796302 0.37559101 2.50001)
(0.98796302 0.37559101 4.5668398e-06)
(0.97484601 0.33399001 2.50001)
(0.97484601 0.33399001 4.5668398e-06)
(0.95815402 0.29369101 2.50001)
(0.95815402 0.29369101 4.5668398e-06)
(0.93801302 0.255 2.50001)
(0.93801302 0.255 4.5668398e-06)
(0.91457599 0.21821199 2.50001)
(0.91457599 0.21821199 4.5668398e-06)
(0.88802201 0.183606 2.50001)
(0.88802201 0.183606 4.5668398e-06)
(0.85855299 0.151447 2.50001)
(0.85855299 0.151447 4.5668398e-06)
(0.82639402 0.121978 2.50001)
(0.82639402 0.121978 4.5668398e-06)
(0.79178798 0.095423996 2.50001)
(0.79178798 0.095423996 4.5668398e-06)
(0.755 0.071987301 2.50001)
(0.755 0.071987301 4.5668398e-06)
(0.71630901 0.051846098 2.50001)
(0.71630901 0.051846098 4.5668398e-06)
(0.67601001 0.035153698 2.50001)
(0.67601001 0.035153698 4.5668398e-06)
(0.63441002 0.0220371 2.50001)
(0.63441002 0.0220371 4.5668398e-06)
(0.591824 0.0125961 2.50001)
(0.591824 0.0125961 4.5668398e-06)
(0.54857802 0.0069026402 2.50001)
(0.54857802 0.0069026402 4.5668398e-06)
(0.505 0.0049999999 2.50001)
(0.505 0.0049999999 4.5668398e-06)
(0.461422 0.0069026402 2.50001)
(0.461422 0.0069026402 4.5668398e-06)
(0.418176 0.0125961 2.50001)
(0.418176 0.0125961 4.5668398e-06)
(0.37559101 0.0220371 2.50001)
(0.37559101 0.0220371 4.5668398e-06)
(0.33399001 0.035153698 2.50001)
(0.33399001 0.035153698 4.5668398e-06)
(0.29369101 0.051846098 2.50001)
(0.29369101 0.051846098 4.5668398e-06)
(0.255 0.071987301 2.50001)
(0.255 0.071987301 4.5668398e-06)
(0.21821199 0.095423996 2.50001)
(0.21821199 0.095423996 4.5668398e-06)
(0.183606 0.121978 2.50001)
(0.183606 0.121978 4.5668398e-06)
(0.151447 0.151447 2.50001)
(0.151447 0.151447 4.5668398e-06)
(0.121978 0.183606 2.50001)
(0.121978 0.183606 4.5668398e-06)
(0.095423996 0.21821199 2.50001)
(0.095423996 0.21821199 4.5668398e-06)
(0.071987301 0.255 2.50001)
(0.071987301 0.255 4.5668398e-06)
(0.051846098 0.29369101 2.50001)
(0.051846098 0.29369101 4.5668398e-06)
(0.035153698 0.33399001 2.50001)
(0.035153698 0.33399001 4.5668398e-06)
(0.0220371 0.37559101 2.50001)
(0.0220371 0.37559101 4.5668398e-06)
(0.0125961 0.418176 2.50001)
(0.0125961 0.418176 4.5668398e-06)
(0.0069026402 0.461422 2.50001)
(0.0069026402 0.461422 4.5668398e-06)
(0.0049999999 0.505 2.50001)
)

// edges

144
(
(0 1)
(2 3)
(4 0)
(3 5)
(6 4)
(5 7)
(8 6)
(7 9)
(10 8)
(9 11)
(12 10)
(11 13)
(14 12)
(13 15)
(16 14)
(15 17)
(18 16)
(17 19)
(20 18)
(19 21)
(22 20)
(21 23)
(24 22)
(23 25)
(26 24)
(25 27)
(28 26)
(27 29)
(30 28)
(29 31)
(32 30)
(31 33)
(34 32)
(33 35)
(36 34)
(35 37)
(38 36)
(37 39)
(40 38)
(39 41)
(42 40)
(41 43)
(44 42)
(43 45)
(46 44)
(45 47)
(48 46)
(47 49)
(50 48)
(49 51)
(52 50)
(51 53)
(54 52)
(53 55)
(56 54)
(55 57)
(58 56)
(57 59)
(60 58)
(59 61)
(62 60)
(61 63)
(64 62)
(63 65)
(66 64)
(65 67)
(68 66)
(67 69)
(70 68)
(69 71)
(72 70)
(71 73)
(74 72)
(73 75)
(76 74)
(75 77)
(78 76)
(77 79)
(80 78)
(79 81)
(82 80)
(81 83)
(84 82)
(83 85)
(86 84)
(85 87)
(88 86)
(87 89)
(90 88)
(89 91)
(92 90)
(91 93)
(94 92)
(93 95)
(96 94)
(95 97)
(98 96)
(97 99)
(100 98)
(99 101)
(102 100)
(101 103)
(104 102)
(103 105)
(106 104)
(105 107)
(108 106)
(107 109)
(110 108)
(109 111)
(112 110)
(111 113)
(114 112)
(113 115)
(116 114)
(115 117)
(118 116)
(117 119)
(120 118)
(119 121)
(122 120)
(121 123)
(124 122)
(123 125)
(126 124)
(125 127)
(128 126)
(127 129)
(130 128)
(129 131)
(132 130)
(131 133)
(134 132)
(133 135)
(136 134)
(135 137)
(138 136)
(137 139)
(140 138)
(139 141)
(142 140)
(141 143)
(1 142)
(143 2)
)

// concaveStart mixedStart nonFeatureStart
0 0 0
// internalStart flatStart openStart multipleStart
144 144 144 144
// normals

288
(
(-0.99904824 0.043618987 0)
(0 0 -1)
(-0.9914448 0.13052663 0)
(0 0 1)
(-0.9914448 0.13052663 0)
(0 0 -1)
(-0.97629647 0.21643754 0)
(0 0 1)
(-0.97629647 0.21643754 0)
(0 0 -1)
(-0.95371582 0.30070939 0)
(0 0 1)
(-0.95371582 0.30070939 0)
(0 0 -1)
(-0.92387947 0.38268359 0)
(0 0 1)
(-0.92387947 0.38268359 0)
(0 0 -1)
(-0.88701129 0.46174774 0)
(0 0 1)
(-0.88701129 0.46174774 0)
(0 0 -1)
(-0.84338975 0.53730227 0)
(0 0 1)
(-0.84338975 0.53730227 0)
(0 0 -1)
(-0.79335494 0.60875934 0)
(0 0 1)
(-0.79335494 0.60875934 0)
(0 0 -1)
(-0.73726899 0.67559931 0)
(0 0 1)
(-0.73726899 0.67559931 0)
(0 0 -1)
(-0.67559916 0.73726913 0)
(0 0 1)
(-0.67559916 0.73726913 0)
(0 0 -1)
(-0.60875962 0.79335473 0)
(0 0 1)
(-0.60875962 0.79335473 0)
(0 0 -1)
(-0.53730746 0.84338645 0)
(0 0 1)
(-0.53730746 0.84338645 0)
(0 0 -1)
(-0.4617439 0.88701329 0)
(0 0 1)
(-0.4617439 0.88701329 0)
(0 0 -1)
(-0.38267543 0.92388285 0)
(0 0 1)
(-0.38267543 0.92388285 0)
(0 0 -1)
(-0.30071142 0.95371518 0)
(0 0 1)
(-0.30071142 0.95371518 0)
(0 0 -1)
(-0.21644168 0.97629555 0)
(0 0 1)
(-0.21644168 0.97629555 0)
(0 0 -1)
(-0.1305851 0.9914371 0)
(0 0 1)
(-0.1305851 0.9914371 0)
(0 0 -1)
(-0.043557632 0.99905092 0)
(0 -0 1)
(-0.043557632 0.99905092 0)
(0 0 -1)
(0.043557602 0.99905092 -0)
(0 0 1)
(0.043557602 0.99905092 0)
(0 0 -1)
(0.13058519 0.99143709 -0)
(0 0 1)
(0.13058519 0.99143709 0)
(0 -0 -1)
(0.21643663 0.97629667 -0)
(0 0 1)
(0.21643663 0.97629667 0)
(0 0 -1)
(0.30071809 0.95371308 -0)
(0 0 1)
(0.30071809 0.95371308 0)
(0 0 -1)
(0.38267543 0.92388285 -0)
(0 0 1)
(0.38267543 0.92388285 0)
(0 -0 -1)
(0.46174418 0.88701314 -0)
(0 0 1)
(0.46174418 0.88701314 0)
(0 0 -1)
(0.53730761 0.84338635 -0)
(0 0 1)
(0.53730761 0.84338635 0)
(0 0 -1)
(0.60875913 0.79335511 -0)
(0 0 1)
(0.60875913 0.79335511 0)
(0 -0 -1)
(0.6755995 0.73726882 -0)
(0 0 1)
(0.6755995 0.73726882 0)
(0 0 -1)
(0.73726882 0.6755995 -0)
(0 0 1)
(0.73726882 0.6755995 0)
(0 0 -1)
(0.79335511 0.60875913 -0)
(0 0 1)
(0.79335511 0.60875913 0)
(0 -0 -1)
(0.84338635 0.53730761 -0)
(0 0 1)
(0.84338635 0.53730761 0)
(0 0 -1)
(0.88701314 0.46174418 -0)
(0 0 1)
(0.88701314 0.46174418 0)
(0 0 -1)
(0.92388285 0.38267543 -0)
(0 0 1)
(0.92388285 0.38267543 0)
(0 -0 -1)
(0.95371308 0.30071809 -0)
(0 0 1)
(0.95371308 0.30071809 0)
(0 0 -1)
(0.97629667 0.21643663 -0)
(0 0 1)
(0.97629667 0.21643663 0)
(0 0 -1)
(0.99143709 0.13058519 -0)
(0 0 1)
(0.99143709 0.13058519 0)
(0 -0 -1)
(0.99905092 0.043557602 -0)
(0 0 1)
(0.99905092 0.043557602 0)
(0 0 -1)
(0.99905092 -0.043557632 0)
(-0 0 1)
(0.99905092 -0.043557632 0)
(0 0 -1)
(0.9914371 -0.1305851 0)
(0 -0 1)
(0.9914371 -0.1305851 0)
(-0 0 -1)
(0.97629555 -0.21644168 0)
(0 0 1)
(0.97629555 -0.21644168 0)
(0 0 -1)
(0.95371518 -0.30071142 0)
(0 0 1)
(0.95371518 -0.30071142 0)
(0 0 -1)
(0.92388285 -0.38267543 0)
(0 -0 1)
(0.92388285 -0.38267543 0)
(-0 0 -1)
(0.88701329 -0.4617439 0)
(0 0 1)
(0.88701329 -0.4617439 0)
(0 0 -1)
(0.84338645 -0.53730746 0)
(0 0 1)
(0.84338645 -0.53730746 0)
(0 0 -1)
(0.79335473 -0.60875962 0)
(0 -0 1)
(0.79335473 -0.60875962 0)
(-0 0 -1)
(0.73726913 -0.67559916 0)
(0 0 1)
(0.73726913 -0.67559916 0)
(0 0 -1)
(0.67559931 -0.73726899 0)
(0 0 1)
(0.67559931 -0.73726899 0)
(0 0 -1)
(0.60875934 -0.79335494 0)
(0 -0 1)
(0.60875934 -0.79335494 0)
(-0 0 -1)
(0.53730227 -0.84338975 0)
(0 0 1)
(0.53730227 -0.84338975 0)
(0 0 -1)
(0.46174774 -0.88701129 0)
(0 0 1)
(0.46174774 -0.88701129 0)
(0 0 -1)
(0.38268359 -0.92387947 0)
(0 -0 1)
(0.38268359 -0.92387947 0)
(-0 0 -1)
(0.30070939 -0.95371582 0)
(0 0 1)
(0.30070939 -0.95371582 0)
(0 0 -1)
(0.21643754 -0.97629647 0)
(0 0 1)
(0.21643754 -0.97629647 0)
(0 0 -1)
(0.13052663 -0.9914448 0)
(0 -0 1)
(0.13052663 -0.9914448 0)
(-0 0 -1)
(0.043618987 -0.99904824 0)
(0 0 1)
(0.043618987 -0.99904824 0)
(0 0 -1)
(-0.043619017 -0.99904824 0)
(0 0 1)
(-0.043619017 -0.99904824 0)
(0 -0 -1)
(-0.13052654 -0.99144482 0)
(-0 0 1)
(-0.13052654 -0.99144482 0)
(0 0 -1)
(-0.21644259 -0.97629535 0)
(0 0 1)
(-0.21644259 -0.97629535 0)
(0 0 -1)
(-0.30070272 -0.95371792 0)
(0 0 1)
(-0.30070272 -0.95371792 0)
(0 0 -1)
(-0.38268359 -0.92387947 0)
(-0 0 1)
(-0.38268359 -0.92387947 0)
(0 0 -1)
(-0.46174746 -0.88701144 0)
(0 0 1)
(-0.46174746 -0.88701144 0)
(0 0 -1)
(-0.53730211 -0.84338985 0)
(0 0 1)
(-0.53730211 -0.84338985 0)
(0 0 -1)
(-0.60875984 -0.79335456 0)
(-0 0 1)
(-0.60875984 -0.79335456 0)
(0 0 -1)
(-0.67559897 -0.7372693 0)
(0 0 1)
(-0.67559897 -0.7372693 0)
(0 0 -1)
(-0.7372693 -0.67559897 0)
(0 0 1)
(-0.7372693 -0.67559897 0)
(0 0 -1)
(-0.79335456 -0.60875984 0)
(-0 0 1)
(-0.79335456 -0.60875984 0)
(0 0 -1)
(-0.84338985 -0.53730211 0)
(0 0 1)
(-0.84338985 -0.53730211 0)
(0 0 -1)
(-0.88701144 -0.46174746 0)
(0 0 1)
(-0.88701144 -0.46174746 0)
(0 0 -1)
(-0.92387947 -0.38268359 0)
(-0 0 1)
(-0.92387947 -0.38268359 0)
(0 0 -1)
(-0.95371792 -0.30070272 0)
(0 0 1)
(-0.95371792 -0.30070272 0)
(0 0 -1)
(-0.97629535 -0.21644259 0)
(0 0 1)
(-0.97629535 -0.21644259 0)
(0 0 -1)
(-0.99144482 -0.13052654 0)
(-0 0 1)
(-0.99144482 -0.13052654 0)
(0 0 -1)
(-0.99904824 -0.043619017 0)
(0 0 1)
(-0.99904824 -0.043619017 0)
(-0 0 -1)
(-0.99904824 0.043618987 0)
(0 0 1)
)

// normal volume types

288
(
0
0
0
0
0
0
0
0
0
0
0
0
0
0
0
0
0
0
0
0
0
0
0
0
0
0
0
0
0
0
0
0
0
0
0
0
0
0
0
0
0
0
0
0
0
0
0
0
0
0
0
0
0
0
0
0
0
0
0
0
0
0
0
0
0
0
0
0
0
0
0
0
0
0
0
0
0
0
0
0
0
0
0
0
0
0
0
0
0
0
0
0
0
0
0
0
0
0
0
0
0
0
0
0
0
0
0
0
0
0
0
0
0
0
0
0
0
0
0
0
0
0
0
0
0
0
0
0
0
0
0
0
0
0
0
0
0
0
0
0
0
0
0
0
0
0
0
0
0
0
0
0
0
0
0
0
0
0
0
0
0
0
0
0
0
0
0
0
0
0
0
0
0
0
0
0
0
0
0
0
0
0
0
0
0
0
0
0
0
0
0
0
0
0
0
0
0
0
0
0
0
0
0
0
0
0
0
0
0
0
0
0
0
0
0
0
0
0
0
0
0
0
0
0
0
0
0
0
0
0
0
0
0
0
0
0
0
0
0
0
0
0
0
0
0
0
0
0
0
0
0
0
0
0
0
0
0
0
0
0
0
0
0
0
0
0
0
0
0
0
0
0
0
0
0
0
0
0
0
0
0
0
0
0
0
0
0
0
)

// normalDirections

144
(
2(1 -1)
2(1 -1)
2(1 -1)
2(1 -1)
2(1 -1)
2(1 -1)
2(1 -1)
2(1 -1)
2(1 -1)
2(1 -1)
2(1 -1)
2(1 -1)
2(1 -1)
2(1 -1)
2(1 -1)
2(1 -1)
2(1 -1)
2(1 -1)
2(1 -1)
2(1 -1)
2(1 -1)
2(1 -1)
2(1 -1)
2(1 -1)
2(1 -1)
2(1 -1)
2(1 -1)
2(1 -1)
2(1 -1)
2(1 -1)
2(1 -1)
2(1 -1)
2(1 -1)
2(1 -1)
2(1 -1)
2(1 -1)
2(1 -1)
2(1 -1)
2(1 -1)
2(1 -1)
2(1 -1)
2(1 -1)
2(1 -1)
2(1 -1)
2(1 -1)
2(1 -1)
2(1 -1)
2(1 -1)
2(1 -1)
2(1 -1)
2(1 -1)
2(1 -1)
2(1 -1)
2(1 -1)
2(1 -1)
2(1 -1)
2(1 -1)
2(1 -1)
2(1 -1)
2(1 -1)
2(1 -1)
2(1 -1)
2(1 -1)
2(1 -1)
2(1 -1)
2(1 -1)
2(1 -1)
2(1 -1)
2(1 -1)
2(1 -1)
2(1 -1)
2(1 -1)
2(1 -1)
2(1 -1)
2(1 -1)
2(1 -1)
2(1 -1)
2(1 -1)
2(1 -1)
2(1 -1)
2(1 -1)
2(1 -1)
2(1 -1)
2(1 -1)
2(1 -1)
2(1 -1)
2(1 -1)
2(1 -1)
2(1 -1)
2(1 -1)
2(1 -1)
2(1 -1)
2(1 -1)
2(1 -1)
2(1 -1)
2(1 -1)
2(1 -1)
2(1 -1)
2(1 -1)
2(1 -1)
2(1 -1)
2(1 -1)
2(1 -1)
2(1 -1)
2(1 -1)
2(1 -1)
2(1 -1)
2(1 -1)
2(1 -1)
2(1 -1)
2(1 -1)
2(1 -1)
2(1 -1)
2(1 -1)
2(1 -1)
2(1 -1)
2(1 -1)
2(1 -1)
2(1 -1)
2(1 -1)
2(1 -1)
2(1 -1)
2(1 -1)
2(1 -1)
2(1 -1)
2(1 -1)
2(1 -1)
2(1 -1)
2(1 -1)
2(1 -1)
2(1 -1)
2(1 -1)
2(1 -1)
2(1 -1)
2(1 -1)
2(1 -1)
2(1 -1)
2(1 -1)
2(1 -1)
2(1 -1)
2(1 -1)
2(1 -1)
2(1 -1)
2(1 -1)
)

// edgeNormals

144
(
2(0 1)
2(2 3)
2(4 5)
2(6 7)
2(8 9)
2(10 11)
2(12 13)
2(14 15)
2(16 17)
2(18 19)
2(20 21)
2(22 23)
2(24 25)
2(26 27)
2(28 29)
2(30 31)
2(32 33)
2(34 35)
2(36 37)
2(38 39)
2(40 41)
2(42 43)
2(44 45)
2(46 47)
2(48 49)
2(50 51)
2(52 53)
2(54 55)
2(56 57)
2(58 59)
2(60 61)
2(62 63)
2(64 65)
2(66 67)
2(68 69)
2(70 71)
2(72 73)
2(74 75)
2(76 77)
2(78 79)
2(80 81)
2(82 83)
2(84 85)
2(86 87)
2(88 89)
2(90 91)
2(92 93)
2(94 95)
2(96 97)
2(98 99)
2(100 101)
2(102 103)
2(104 105)
2(106 107)
2(108 109)
2(110 111)
2(112 113)
2(114 115)
2(116 117)
2(118 119)
2(120 121)
2(122 123)
2(124 125)
2(126 127)
2(128 129)
2(130 131)
2(132 133)
2(134 135)
2(136 137)
2(138 139)
2(140 141)
2(142 143)
2(144 145)
2(146 147)
2(148 149)
2(150 151)
2(152 153)
2(154 155)
2(156 157)
2(158 159)
2(160 161)
2(162 163)
2(164 165)
2(166 167)
2(168 169)
2(170 171)
2(172 173)
2(174 175)
2(176 177)
2(178 179)
2(180 181)
2(182 183)
2(184 185)
2(186 187)
2(188 189)
2(190 191)
2(192 193)
2(194 195)
2(196 197)
2(198 199)
2(200 201)
2(202 203)
2(204 205)
2(206 207)
2(208 209)
2(210 211)
2(212 213)
2(214 215)
2(216 217)
2(218 219)
2(220 221)
2(222 223)
2(224 225)
2(226 227)
2(228 229)
2(230 231)
2(232 233)
2(234 235)
2(236 237)
2(238 239)
2(240 241)
2(242 243)
2(244 245)
2(246 247)
2(248 249)
2(250 251)
2(252 253)
2(254 255)
2(256 257)
2(258 259)
2(260 261)
2(262 263)
2(264 265)
2(266 267)
2(268 269)
2(270 271)
2(272 273)
2(274 275)
2(276 277)
2(278 279)
2(280 281)
2(282 283)
2(284 285)
2(286 287)
)

// featurePointNormals
0()
// featurePointEdges
0()
// regionEdges
0()


// ************************************************************************* //
