/*--------------------------------*- C++ -*----------------------------------*\
| =========                 |                                                 |
| \\      /  F ield         | OpenFOAM: The Open Source CFD Toolbox           |
|  \\    /   O peration     | Version:  v2012                                 |
|   \\  /    A nd           | Website:  www.openfoam.com                      |
|    \\/     M anipulation  |                                                 |
\*---------------------------------------------------------------------------*/
FoamFile
{
    version     2.0;
    format      ascii;
    class       polyBoundaryMesh;
    location    "constant/polyMesh";
    object      boundary;
}
// * * * * * * * * * * * * * * * * * * * * * * * * * * * * * * * * * * * * * //

4
(
    inlet
    {
        type            patch;
        nFaces          30;
        startFace       24170;
    }
    outlet
    {
        type            patch;
        nFaces          57;
        startFace       24200;
    }
    walls
    {
        type            wall;
        inGroups        1(wall);
        nFaces          473;
        startFace       24257;
    }
    frontAndBack
    {
        type            empty;
        inGroups        1(empty);
        nFaces          24450;
        startFace       24730;
    }
)

// ************************************************************************* //
