/*--------------------------------*- C++ -*----------------------------------*\
| =========                 |                                                 |
| \\      /  F ield         | OpenFOAM: The Open Source CFD Toolbox           |
|  \\    /   O peration     | Version:  v2012                                 |
|   \\  /    A nd           | Website:  www.openfoam.com                      |
|    \\/     M anipulation  |                                                 |
\*---------------------------------------------------------------------------*/
FoamFile
{
    version     2.0;
    format      ascii;
    class       dictionary;
    location    "system";
    object      controlDict;
}
// * * * * * * * * * * * * * * * * * * * * * * * * * * * * * * * * * * * * * //

application     pisoFoam;

startFrom       startTime;

startTime       0;

stopAt          endTime;

endTime         2.5;

deltaT          5e-04;

writeControl    timeStep;

writeInterval   10;

purgeWrite      0;

writeFormat     ascii;

writePrecision  6;

writeCompression off;

timeFormat      general;

timePrecision   6;

runTimeModifiable true;

functions
{
    probes
    {
        type            probes;
        libs            (sampling);
        writeControl    timeStep;
        writeInterval   1;

        fields
        (
            p
        );

        probeLocations
        (
            (0.0254 0.0253 0)
            (0.0508 0.0253 0)
            (0.0762 0.0253 0)
            (0.1016 0.0253 0)
            (0.127 0.0253 0)
            (0.1524 0.0253 0)
            (0.1778 0.0253 0)
        );

    }

    fieldAverage1
    {
        type            fieldAverage;
        libs            (fieldFunctionObjects);
        writeControl    writeTime;

        fields
        (
            U
            {
                mean        on;
                prime2Mean  on;
                base        time;
            }

            p
            {
                mean        on;
                prime2Mean  on;
                base        time;
            }
        );
    }

    // Sample near-wall velocity
    surfaceSampling
    {
        type            surfaces;
        libs            (sampling);
        writeControl    writeTime;

        interpolationScheme cellPoint;

        surfaceFormat vtk;

        // Fields to be sampled
        fields
        (
            U
        );

        surfaces
        {
            nearWall
            {
                type            patchInternalField;
                patches         ( lowerWall );
                distance        1E-6;
                interpolate     true;
                triangulate     false;
            }
        }
    }

    #includeFunc scalarTransport
}

// ************************************************************************* //
