/*--------------------------------*- C++ -*----------------------------------*\
| =========                 |                                                 |
| \\      /  F ield         | OpenFOAM: The Open Source CFD Toolbox           |
|  \\    /   O peration     | Version:  v2012                                 |
|   \\  /    A nd           | Website:  www.openfoam.com                      |
|    \\/     M anipulation  |                                                 |
\*---------------------------------------------------------------------------*/
FoamFile
{
    version     2.0;
    format      ascii;
    class       featureEdgeMesh;
    location    "constant/triSurface";
    object      AMI.eMesh;
}
// * * * * * * * * * * * * * * * * * * * * * * * * * * * * * * * * * * * * * //


// points:

144
(
(0.0069026402 0.54857802 4.5668398e-06)
(0.0049999999 0.505 4.5668398e-06)
(0.0069026402 0.54857802 2.50001)
(0.0125961 0.591824 2.50001)
(0.0125961 0.591824 4.5668398e-06)
(0.0220371 0.63441002 2.50001)
(0.0220371 0.63441002 4.5668398e-06)
(0.035153698 0.67601001 2.50001)
(0.035153698 0.67601001 4.5668398e-06)
(0.051846098 0.71630901 2.50001)
(0.051846098 0.71630901 4.5668398e-06)
(0.071987301 0.755 2.50001)
(0.071987301 0.755 4.5668398e-06)
(0.095423996 0.79178798 2.50001)
(0.095423996 0.79178798 4.5668398e-06)
(0.121978 0.82639402 2.50001)
(0.121978 0.82639402 4.5668398e-06)
(0.151447 0.85855299 2.50001)
(0.151447 0.85855299 4.5668398e-06)
(0.183606 0.88802201 2.50001)
(0.183606 0.88802201 4.5668398e-06)
(0.21821199 0.91457599 2.50001)
(0.21821199 0.91457599 4.5668398e-06)
(0.255 0.93801302 2.50001)
(0.255 0.93801302 4.5668398e-06)
(0.29369101 0.95815402 2.50001)
(0.29369101 0.95815402 4.5668398e-06)
(0.33399001 0.97484601 2.50001)
(0.33399001 0.97484601 4.5668398e-06)
(0.37559101 0.98796302 2.50001)
(0.37559101 0.98796302 4.5668398e-06)
(0.418176 0.99740398 2.50001)
(0.418176 0.99740398 4.5668398e-06)
(0.461422 1.0031 2.50001)
(0.461422 1.0031 4.5668398e-06)
(0.505 1.005 2.50001)
(0.505 1.005 4.5668398e-06)
(0.54857802 1.0031 2.50001)
(0.54857802 1.0031 4.5668398e-06)
(0.591824 0.99740398 2.50001)
(0.591824 0.99740398 4.5668398e-06)
(0.63441002 0.98796302 2.50001)
(0.63441002 0.98796302 4.5668398e-06)
(0.67601001 0.97484601 2.50001)
(0.67601001 0.97484601 4.5668398e-06)
(0.71630901 0.95815402 2.50001)
(0.71630901 0.95815402 4.5668398e-06)
(0.755 0.93801302 2.50001)
(0.755 0.93801302 4.5668398e-06)
(0.79178798 0.91457599 2.50001)
(0.79178798 0.91457599 4.5668398e-06)
(0.82639402 0.88802201 2.50001)
(0.82639402 0.88802201 4.5668398e-06)
(0.85855299 0.85855299 2.50001)
(0.85855299 0.85855299 4.5668398e-06)
(0.88802201 0.82639402 2.50001)
(0.88802201 0.82639402 4.5668398e-06)
(0.91457599 0.79178798 2.50001)
(0.91457599 0.79178798 4.5668398e-06)
(0.93801302 0.755 2.50001)
(0.93801302 0.755 4.5668398e-06)
(0.95815402 0.71630901 2.50001)
(0.95815402 0.71630901 4.5668398e-06)
(0.97484601 0.67601001 2.50001)
(0.97484601 0.67601001 4.5668398e-06)
(0.98796302 0.63441002 2.50001)
(0.98796302 0.63441002 4.5668398e-06)
(0.99740398 0.591824 2.50001)
(0.99740398 0.591824 4.5668398e-06)
(1.0031 0.54857802 2.50001)
(1.0031 0.54857802 4.5668398e-06)
(1.005 0.505 2.50001)
(1.005 0.505 4.5668398e-06)
(1.0031 0.461422 2.50001)
(1.0031 0.461422 4.5668398e-06)
(0.99740398 0.418176 2.50001)
(0.99740398 0.418176 4.5668398e-06)
(0.98796302 0.37559101 2.50001)
(0.98796302 0.37559101 4.5668398e-06)
(0.97484601 0.33399001 2.50001)
(0.97484601 0.33399001 4.5668398e-06)
(0.95815402 0.29369101 2.50001)
(0.95815402 0.29369101 4.5668398e-06)
(0.93801302 0.255 2.50001)
(0.93801302 0.255 4.5668398e-06)
(0.91457599 0.21821199 2.50001)
(0.91457599 0.21821199 4.5668398e-06)
(0.88802201 0.183606 2.50001)
(0.88802201 0.183606 4.5668398e-06)
(0.85855299 0.151447 2.50001)
(0.85855299 0.151447 4.5668398e-06)
(0.82639402 0.121978 2.50001)
(0.82639402 0.121978 4.5668398e-06)
(0.79178798 0.095423996 2.50001)
(0.79178798 0.095423996 4.5668398e-06)
(0.755 0.071987301 2.50001)
(0.755 0.071987301 4.5668398e-06)
(0.71630901 0.051846098 2.50001)
(0.71630901 0.051846098 4.5668398e-06)
(0.67601001 0.035153698 2.50001)
(0.67601001 0.035153698 4.5668398e-06)
(0.63441002 0.0220371 2.50001)
(0.63441002 0.0220371 4.5668398e-06)
(0.591824 0.0125961 2.50001)
(0.591824 0.0125961 4.5668398e-06)
(0.54857802 0.0069026402 2.50001)
(0.54857802 0.0069026402 4.5668398e-06)
(0.505 0.0049999999 2.50001)
(0.505 0.0049999999 4.5668398e-06)
(0.461422 0.0069026402 2.50001)
(0.461422 0.0069026402 4.5668398e-06)
(0.418176 0.0125961 2.50001)
(0.418176 0.0125961 4.5668398e-06)
(0.37559101 0.0220371 2.50001)
(0.37559101 0.0220371 4.5668398e-06)
(0.33399001 0.035153698 2.50001)
(0.33399001 0.035153698 4.5668398e-06)
(0.29369101 0.051846098 2.50001)
(0.29369101 0.051846098 4.5668398e-06)
(0.255 0.071987301 2.50001)
(0.255 0.071987301 4.5668398e-06)
(0.21821199 0.095423996 2.50001)
(0.21821199 0.095423996 4.5668398e-06)
(0.183606 0.121978 2.50001)
(0.183606 0.121978 4.5668398e-06)
(0.151447 0.151447 2.50001)
(0.151447 0.151447 4.5668398e-06)
(0.121978 0.183606 2.50001)
(0.121978 0.183606 4.5668398e-06)
(0.095423996 0.21821199 2.50001)
(0.095423996 0.21821199 4.5668398e-06)
(0.071987301 0.255 2.50001)
(0.071987301 0.255 4.5668398e-06)
(0.051846098 0.29369101 2.50001)
(0.051846098 0.29369101 4.5668398e-06)
(0.035153698 0.33399001 2.50001)
(0.035153698 0.33399001 4.5668398e-06)
(0.0220371 0.37559101 2.50001)
(0.0220371 0.37559101 4.5668398e-06)
(0.0125961 0.418176 2.50001)
(0.0125961 0.418176 4.5668398e-06)
(0.0069026402 0.461422 2.50001)
(0.0069026402 0.461422 4.5668398e-06)
(0.0049999999 0.505 2.50001)
)


// edges:

144
(
(0 1)
(2 3)
(4 0)
(3 5)
(6 4)
(5 7)
(8 6)
(7 9)
(10 8)
(9 11)
(12 10)
(11 13)
(14 12)
(13 15)
(16 14)
(15 17)
(18 16)
(17 19)
(20 18)
(19 21)
(22 20)
(21 23)
(24 22)
(23 25)
(26 24)
(25 27)
(28 26)
(27 29)
(30 28)
(29 31)
(32 30)
(31 33)
(34 32)
(33 35)
(36 34)
(35 37)
(38 36)
(37 39)
(40 38)
(39 41)
(42 40)
(41 43)
(44 42)
(43 45)
(46 44)
(45 47)
(48 46)
(47 49)
(50 48)
(49 51)
(52 50)
(51 53)
(54 52)
(53 55)
(56 54)
(55 57)
(58 56)
(57 59)
(60 58)
(59 61)
(62 60)
(61 63)
(64 62)
(63 65)
(66 64)
(65 67)
(68 66)
(67 69)
(70 68)
(69 71)
(72 70)
(71 73)
(74 72)
(73 75)
(76 74)
(75 77)
(78 76)
(77 79)
(80 78)
(79 81)
(82 80)
(81 83)
(84 82)
(83 85)
(86 84)
(85 87)
(88 86)
(87 89)
(90 88)
(89 91)
(92 90)
(91 93)
(94 92)
(93 95)
(96 94)
(95 97)
(98 96)
(97 99)
(100 98)
(99 101)
(102 100)
(101 103)
(104 102)
(103 105)
(106 104)
(105 107)
(108 106)
(107 109)
(110 108)
(109 111)
(112 110)
(111 113)
(114 112)
(113 115)
(116 114)
(115 117)
(118 116)
(117 119)
(120 118)
(119 121)
(122 120)
(121 123)
(124 122)
(123 125)
(126 124)
(125 127)
(128 126)
(127 129)
(130 128)
(129 131)
(132 130)
(131 133)
(134 132)
(133 135)
(136 134)
(135 137)
(138 136)
(137 139)
(140 138)
(139 141)
(142 140)
(141 143)
(1 142)
(143 2)
)

// * * * * * * * * * * * * * * * * * * * * * * * * * * * * * * * * * * * * * //


// ************************************************************************* //
