/*--------------------------------*- C++ -*----------------------------------*\
| =========                 |                                                 |
| \\      /  F ield         | OpenFOAM: The Open Source CFD Toolbox           |
|  \\    /   O peration     | Version:  v2012                                 |
|   \\  /    A nd           | Website:  www.openfoam.com                      |
|    \\/     M anipulation  |                                                 |
\*---------------------------------------------------------------------------*/
FoamFile
{
    version     2.0;
    format      ascii;
    class       featureEdgeMesh;
    location    "constant/triSurface";
    object      wing.eMesh;
}
// * * * * * * * * * * * * * * * * * * * * * * * * * * * * * * * * * * * * * //


// points:

429
(
(0.63 0.505 4.5668398e-06)
(0.38 0.505 4.5668398e-06)
(0.38792399 0.501531 4.5668398e-06)
(0.38675901 0.50174999 4.5668398e-06)
(0.38280499 0.50282103 4.5668398e-06)
(0.509175 0.517542 1.67308)
(0.50867301 0.51734501 1.67309)
(0.51118499 0.51883101 1.67755)
(0.60600001 0.60500002 1.75001)
(0.597036 0.602575 1.74863)
(0.45573899 0.505871 1.52131)
(0.452636 0.50594598 1.50001)
(0.464441 0.505454 1.56343)
(0.49223 0.51015502 1.64478)
(0.50145 0.51346302 1.6639301)
(0.501854 0.513843 1.6639301)
(0.50208002 0.51400799 1.6639301)
(0.50174397 0.51375699 1.6639301)
(0.484146 0.50837499 1.62498)
(0.49256 0.51048303 1.64478)
(0.48403299 0.50824499 1.62498)
(0.47690001 0.50726998 1.60475)
(0.47051001 0.50665498 1.5842)
(0.45955801 0.50524598 1.54245)
(0.46462801 0.50597203 1.5634201)
(0.45969799 0.50570101 1.54245)
(0.470099 0.505952 1.58421)
(0.47031301 0.50641501 1.5842)
(0.47044101 0.50657803 1.5842)
(0.45560399 0.50564402 1.52131)
(0.45260301 0.50589901 1.50001)
(0.58760798 0.59852999 1.74649)
(0.58723199 0.59856498 1.7465301)
(0.59659898 0.602709 1.74871)
(0.57138401 0.58647799 1.7401299)
(0.57105899 0.58643401 1.74015)
(0.55214298 0.56499898 1.72724)
(0.55161798 0.56487203 1.72726)
(0.54041499 0.55048299 1.71667)
(0.53514302 0.54346102 1.7108001)
(0.53947502 0.55014002 1.7167)
(0.53006202 0.536605 1.7045701)
(0.53166002 0.53700399 1.7045)
(0.53093803 0.53407103 1.70108)
(0.51167101 0.51902097 1.6775399)
(0.50818503 0.51712698 1.6731)
(0.50703597 0.51646602 1.67312)
(0.506823 0.516312 1.67312)
(0.50330001 0.51471001 1.66391)
(0.51091999 0.51843101 1.67531)
(0.51469398 0.520886 1.68188)
(0.51567602 0.52117801 1.6818399)
(0.50968599 0.51771998 1.6730601)
(0.52141702 0.52458799 1.68803)
(0.52241099 0.52475601 1.68797)
(0.53410703 0.54307699 1.71083)
(0.52960497 0.53518498 1.7029001)
(0.52920002 0.53378099 1.70118)
(0.50859398 0.51450998 1.6731)
(0.53940099 0.54858297 1.7167)
(0.49265501 0.50898999 1.64478)
(0.49513599 0.509579 1.64964)
(0.49324599 0.50878799 1.64478)
(0.49354801 0.50870299 1.64478)
(0.49572 0.50940299 1.64964)
(0.48450401 0.50695801 1.62498)
(0.477292 0.50571603 1.60475)
(0.47093701 0.50495702 1.5842)
(0.464867 0.504731 1.5634201)
(0.45326 0.50401098 1.50001)
(0.456058 0.50424099 1.52131)
(0.452943 0.50417 1.50001)
(0.452999 0.50413901 1.50001)
(0.455946 0.50431001 1.52131)
(0.596246 0.60243499 1.74876)
(0.59588897 0.60252398 1.7488)
(0.58661699 0.59803599 1.74659)
(0.586294 0.59810603 1.7466)
(0.53908002 0.54866302 1.71671)
(0.52884603 0.53429401 1.70461)
(0.53876603 0.54876202 1.71671)
(0.528081 0.53450602 1.70462)
(0.52709597 0.53079897 1.70127)
(0.52627099 0.53094399 1.70129)
(0.52285898 0.52463198 1.69406)
(0.52195299 0.52475297 1.69408)
(0.51674998 0.51983798 1.68613)
(0.50755298 0.51472598 1.67312)
(0.51626903 0.51991099 1.6861399)
(0.40311 0.50491101 0.93877)
(0.408463 0.505 1.02843)
(0.39862901 0.505 0.85000497)
(0.403106 0.50495499 0.93877)
(0.39520401 0.505 0.77094799)
(0.39441499 0.50490499 0.75118899)
(0.44112301 0.505 1.40675)
(0.44112501 0.50496399 1.40675)
(0.450196 0.505 1.4835401)
(0.45228899 0.50494599 1.50001)
(0.45231 0.50484002 1.50001)
(0.45230299 0.50486302 1.50001)
(0.452407 0.50462699 1.50001)
(0.45237899 0.504673 1.50001)
(0.45237499 0.50467998 1.50001)
(0.452418 0.50461298 1.50001)
(0.45318899 0.504044 1.50001)
(0.38167101 0.505 0.261087)
(0.38087001 0.50488502 0.187884)
(0.38000599 0.50490397 4.5668398e-06)
(0.38349599 0.50489199 0.375633)
(0.38797399 0.50489801 0.56335998)
(0.38349101 0.50494599 0.375633)
(0.38677001 0.505 0.52028698)
(0.41528001 0.50495899 1.1261899)
(0.422802 0.50492102 1.21977)
(0.43137801 0.504924 1.31337)
(0.435518 0.505 1.35458)
(0.421698 0.505 1.2068599)
(0.40310499 0.50518 0.93867999)
(0.39441699 0.505193 0.75123698)
(0.44112301 0.50507301 1.40675)
(0.431382 0.505153 1.31341)
(0.45229 0.505126 1.50001)
(0.45229101 0.50513703 1.50001)
(0.42279801 0.50515902 1.21973)
(0.41529 0.50516701 1.12628)
(0.38 0.50510597 4.5668398e-06)
(0.390558 0.512716 4.5668398e-06)
(0.38087001 0.505234 0.187943)
(0.38348901 0.50511003 0.375633)
(0.38349599 0.50522 0.375633)
(0.387972 0.50520599 0.563308)
(0.45228601 0.505 1.50001)
(0.60122299 0.60413003 1.74949)
(0.46443599 0.50534302 1.5634201)
(0.496806 0.51169097 1.65446)
(0.49233201 0.51027298 1.64478)
(0.49244201 0.510382 1.64478)
(0.48791301 0.50893497 1.63495)
(0.48385301 0.50794899 1.62498)
(0.480104 0.50730002 1.61491)
(0.480032 0.506953 1.61491)
(0.47652099 0.506625 1.60475)
(0.48029301 0.50761002 1.61491)
(0.463361 0.50528598 1.55909)
(0.46445799 0.50556201 1.5634201)
(0.47012499 0.50604898 1.5842)
(0.464486 0.505669 1.5634201)
(0.45960599 0.50547802 1.54245)
(0.45957601 0.50536299 1.54245)
(0.47016099 0.50614399 1.5842)
(0.46452501 0.50577301 1.5634201)
(0.47007799 0.50574899 1.5842)
(0.459647 0.50559098 1.54245)
(0.470375 0.50649899 1.5842)
(0.473474 0.50676697 1.59451)
(0.45749399 0.50554699 1.5319)
(0.455668 0.505759 1.52131)
(0.46457201 0.50587398 1.5634201)
(0.470256 0.50632799 1.5842)
(0.47020501 0.50623798 1.5842)
(0.453899 0.50564998 1.51068)
(0.59159601 0.60088497 1.7477601)
(0.59639603 0.60275197 1.74874)
(0.58800501 0.59846503 1.74643)
(0.57922798 0.59296298 1.74357)
(0.57870698 0.59294701 1.74361)
(0.56471199 0.57953298 1.73622)
(0.57845801 0.59291899 1.7436301)
(0.57438701 0.58970398 1.7419699)
(0.557594 0.57216901 1.73195)
(0.55737299 0.57210499 1.7319601)
(0.55136299 0.56479597 1.72727)
(0.55409598 0.56837201 1.72967)
(0.56392699 0.57938898 1.7362601)
(0.58246499 0.595873 1.74518)
(0.58687598 0.59856498 1.74656)
(0.54009402 0.55038202 1.71668)
(0.54313803 0.55403101 1.71947)
(0.53978002 0.55026799 1.7166899)
(0.53478903 0.543347 1.7108099)
(0.53444397 0.54321998 1.71082)
(0.53258997 0.53999102 1.7077399)
(0.53085101 0.53682399 1.70454)
(0.54591203 0.55761403 1.72217)
(0.53006101 0.53394002 1.70113)
(0.51245898 0.51965499 1.67974)
(0.51421499 0.52072001 1.68189)
(0.501369 0.51334703 1.6639301)
(0.50377601 0.51438802 1.66857)
(0.50636798 0.515845 1.67313)
(0.49662399 0.51145601 1.65446)
(0.50944197 0.517847 1.67535)
(0.50571299 0.51583099 1.66855)
(0.50231397 0.51416302 1.66392)
(0.50255299 0.51431102 1.66392)
(0.50279701 0.51445103 1.66392)
(0.50304699 0.514584 1.66391)
(0.51342499 0.52001101 1.67971)
(0.51216602 0.51919401 1.6775301)
(0.517928 0.52235001 1.68393)
(0.49691001 0.51179397 1.65446)
(0.52973598 0.53254199 1.69936)
(0.52852702 0.53107101 1.69758)
(0.52731198 0.52966499 1.69575)
(0.52609098 0.52832901 1.69388)
(0.52017498 0.52353901 1.6859699)
(0.52363801 0.52587199 1.68998)
(0.52486598 0.52706301 1.69195)
(0.55805099 0.57227302 1.73193)
(0.54873598 0.56123197 1.7247699)
(0.54217499 0.55223501 1.7194999)
(0.492948 0.508883 1.64478)
(0.49711201 0.51047403 1.65446)
(0.48062 0.50633299 1.61491)
(0.488455 0.50784498 1.63494)
(0.47074801 0.50503898 1.5842)
(0.47056499 0.50513297 1.5842)
(0.46477601 0.50479501 1.5634201)
(0.470393 0.50524497 1.5842)
(0.46461001 0.50494403 1.5634201)
(0.46468899 0.504866 1.5634201)
(0.47024 0.50538099 1.5842)
(0.46225199 0.50464499 1.55296)
(0.46001601 0.504462 1.54245)
(0.46445 0.50523299 1.5634201)
(0.47383201 0.50536901 1.59451)
(0.45317999 0.50404799 1.50001)
(0.456285 0.50412101 1.52131)
(0.470128 0.50555098 1.58421)
(0.46448699 0.50512803 1.56343)
(0.46454099 0.505032 1.5634201)
(0.454146 0.50434101 1.51068)
(0.45616901 0.504179 1.52131)
(0.45777401 0.50444698 1.5319)
(0.590886 0.60055101 1.74781)
(0.57784998 0.59224302 1.74366)
(0.57370198 0.58904099 1.74199)
(0.57026303 0.58552498 1.74019)
(0.58176601 0.59536898 1.7452101)
(0.563335 0.57832801 1.73628)
(0.55966198 0.574745 1.73419)
(0.556894 0.57089603 1.73198)
(0.55646002 0.57102001 1.73199)
(0.55334598 0.56727701 1.72969)
(0.55381399 0.56714302 1.7296799)
(0.55031002 0.56353199 1.7273)
(0.54734099 0.55979598 1.7248)
(0.56639802 0.58206499 1.73829)
(0.54157299 0.552405 1.71951)
(0.54443198 0.55608201 1.72221)
(0.52845901 0.53438902 1.70461)
(0.53332698 0.54155099 1.71085)
(0.52413797 0.52604502 1.69593)
(0.52453798 0.52764601 1.69777)
(0.52157599 0.52328998 1.69213)
(0.51935202 0.52214599 1.69019)
(0.51757699 0.52102798 1.68819)
(0.52029097 0.52202302 1.69017)
(0.52541101 0.52752697 1.69775)
(0.51110899 0.51608402 1.67756)
(0.50932801 0.515365 1.67535)
(0.50806898 0.51460499 1.67311)
(0.50262898 0.51216 1.66392)
(0.50026101 0.51111501 1.65922)
(0.49767199 0.51028198 1.65446)
(0.497958 0.51020199 1.6544501)
(0.50506097 0.51335597 1.66856)
(0.51448202 0.518951 1.68405)
(0.51367003 0.51787698 1.68191)
(0.51188302 0.51704299 1.67976)
(0.38012001 0.50450498 4.5668398e-06)
(0.38016701 0.50441599 4.5668398e-06)
(0.39441299 0.50490499 0.75114101)
(0.40873399 0.50491399 1.03251)
(0.44114199 0.504857 1.40675)
(0.45232701 0.50478601 1.50001)
(0.452297 0.504893 1.50001)
(0.44126001 0.50459498 1.40675)
(0.44120401 0.50468701 1.40675)
(0.45234901 0.50473201 1.50001)
(0.452815 0.50424802 1.50001)
(0.45271 0.50432098 1.50001)
(0.45268399 0.50434101 1.50001)
(0.45259899 0.50441098 1.50001)
(0.452528 0.50448 1.50001)
(0.45249599 0.50451303 1.50001)
(0.452447 0.50457197 1.50001)
(0.44206601 0.50399703 1.40675)
(0.431375 0.504924 1.3133399)
(0.42280501 0.50492102 1.21981)
(0.44112799 0.50492799 1.40675)
(0.38017601 0.50440103 4.5668398e-06)
(0.380081 0.50459701 4.5668398e-06)
(0.380072 0.50462103 4.5668398e-06)
(0.38004199 0.50471401 4.5668398e-06)
(0.38003099 0.50475699 4.5668398e-06)
(0.38001999 0.50480902 4.5668398e-06)
(0.380869 0.50488502 0.18782599)
(0.38050601 0.50399703 4.5668398e-06)
(0.38065299 0.503869 4.5668398e-06)
(0.38067999 0.50384802 4.5668398e-06)
(0.380824 0.50374001 4.5668398e-06)
(0.380382 0.50412399 4.5668398e-06)
(0.38030499 0.50421399 4.5668398e-06)
(0.38028401 0.50424099 4.5668398e-06)
(0.380243 0.50429702 4.5668398e-06)
(0.38095099 0.50365299 4.5668398e-06)
(0.38109699 0.50356299 4.5668398e-06)
(0.381161 0.50352502 4.5668398e-06)
(0.381529 0.50333202 4.5668398e-06)
(0.382047 0.50310397 4.5668398e-06)
(0.38225999 0.50301999 4.5668398e-06)
(0.38797599 0.50489801 0.563411)
(0.41528401 0.50491798 1.1261899)
(0.40873101 0.504915 1.03247)
(0.40873399 0.50517398 1.03251)
(0.41528401 0.50516701 1.1261899)
(0.40311 0.50518 0.93877)
(0.39441299 0.50519401 0.75114101)
(0.441129 0.50514603 1.40675)
(0.45228601 0.50506902 1.50001)
(0.441138 0.50521803 1.40675)
(0.45230201 0.50521803 1.50001)
(0.45231301 0.50527298 1.50001)
(0.45232299 0.50531602 1.50001)
(0.452353 0.50542003 1.50001)
(0.45239601 0.50553298 1.50001)
(0.45245501 0.505656 1.50001)
(0.45253301 0.50579298 1.50001)
(0.431375 0.505153 1.3133399)
(0.38001099 0.50526798 4.5668398e-06)
(0.380869 0.505234 0.18782599)
(0.380025 0.50537199 4.5668398e-06)
(0.380036 0.50543201 4.5668398e-06)
(0.38007301 0.50559598 4.5668398e-06)
(0.38013399 0.50579 4.5668398e-06)
(0.38021001 0.50598001 4.5668398e-06)
(0.38030699 0.50617898 4.5668398e-06)
(0.38042599 0.506387 4.5668398e-06)
(0.38060999 0.50666302 4.5668398e-06)
(0.38072401 0.506814 4.5668398e-06)
(0.38083699 0.506953 4.5668398e-06)
(0.38110501 0.50725001 4.5668398e-06)
(0.38141999 0.50755697 4.5668398e-06)
(0.38179201 0.50787997 4.5668398e-06)
(0.38210699 0.50813103 4.5668398e-06)
(0.38341099 0.50906402 4.5668398e-06)
(0.389709 0.51237398 4.5668398e-06)
(0.38686001 0.51107299 4.5668398e-06)
(0.38591999 0.51058102 4.5668398e-06)
(0.38382101 0.50933498 4.5668398e-06)
(0.38797501 0.505207 0.563411)
(0.45228499 0.50503802 1.50001)
(0.42280501 0.50515997 1.21981)
(0.408728 0.50516999 1.0324301)
(0.59543401 0.50474799 4.5668398e-06)
(0.56235701 0.504035 4.5668398e-06)
(0.51732498 0.50209099 4.5668398e-06)
(0.46867001 0.500112 4.5668398e-06)
(0.44161099 0.499365 4.5668398e-06)
(0.43456301 0.49926999 4.5668398e-06)
(0.42766601 0.49924499 4.5668398e-06)
(0.41020101 0.499589 4.5668398e-06)
(0.40661499 0.49974501 4.5668398e-06)
(0.39306599 0.50081003 4.5668398e-06)
(0.385012 0.50215101 4.5668398e-06)
(0.60202599 0.56010699 1.7248)
(0.60173202 0.557033 1.7226501)
(0.60456598 0.58856899 1.74167)
(0.492935 0.510764 1.64478)
(0.45982301 0.50590998 1.54245)
(0.59190202 0.50554597 1.5752701)
(0.59171498 0.50508201 1.53696)
(0.60245103 0.56464797 1.7278399)
(0.60345203 0.57574099 1.73463)
(0.59779602 0.52191401 1.6882499)
(0.59750998 0.52031702 1.68522)
(0.59808701 0.52369797 1.69124)
(0.59789503 0.52249998 1.68927)
(0.59823698 0.52468598 1.69274)
(0.59846902 0.52631301 1.69502)
(0.59884399 0.52919602 1.69862)
(0.59864599 0.527637 1.69674)
(0.59908199 0.53117502 1.70082)
(0.59736902 0.51958197 1.68369)
(0.59731901 0.51932502 1.68314)
(0.59712899 0.51839602 1.68103)
(0.59694099 0.51752502 1.6789)
(0.59688699 0.51728702 1.67829)
(0.59657198 0.51595098 1.67457)
(0.59634399 0.515064 1.67181)
(0.59621298 0.51458001 1.67018)
(0.59586698 0.51338798 1.66573)
(0.59558398 0.51249802 1.66192)
(0.59921199 0.53230798 1.70201)
(0.59965199 0.536358 1.70594)
(0.60028398 0.54251599 1.71131)
(0.60064501 0.54607701 1.71426)
(0.60100597 0.54966402 1.7171299)
(0.59217298 0.50500101 1.50471)
(0.59228599 0.505 1.50001)
(0.59282398 0.50673598 1.61085)
(0.59326601 0.50739098 1.62182)
(0.593611 0.50795901 1.62927)
(0.59461099 0.50994402 1.64742)
(0.59521598 0.511446 1.65672)
(0.60642701 0.505 0.93756598)
(0.601713 0.505 1.1250499)
(0.59699899 0.505 1.31253)
(0.61114103 0.505 0.750067)
(0.62528503 0.505 0.187526)
(0.62057 0.505 0.375045)
(0.477364 0.52183199 4.5668398e-06)
(0.461573 0.52190202 4.5668398e-06)
(0.44182801 0.52128297 4.5668398e-06)
(0.43452299 0.52081102 4.5668398e-06)
(0.418879 0.51921499 4.5668398e-06)
(0.41620401 0.518843 4.5668398e-06)
(0.408218 0.51750702 4.5668398e-06)
(0.403786 0.51659399 4.5668398e-06)
(0.39537901 0.51438701 4.5668398e-06)
(0.392795 0.51354098 4.5668398e-06)
(0.597817 0.51054102 4.5668398e-06)
(0.566082 0.51511198 4.5668398e-06)
(0.53671098 0.51837099 4.5668398e-06)
(0.50737798 0.520621 4.5668398e-06)
(0.50160301 0.52094698 4.5668398e-06)
(0.49762499 0.51231998 1.6544501)
)


// edges:

496
(
(356 357)
(0 356)
(357 358)
(358 359)
(359 360)
(360 361)
(361 362)
(362 363)
(363 364)
(364 365)
(365 2)
(3 366)
(366 4)
(367 368)
(8 369)
(13 14)
(16 370)
(24 371)
(372 373)
(374 367)
(369 375)
(376 377)
(378 379)
(380 378)
(381 380)
(382 383)
(384 382)
(379 376)
(385 386)
(386 387)
(387 388)
(388 389)
(389 390)
(390 391)
(391 392)
(392 393)
(393 394)
(377 385)
(395 384)
(396 395)
(397 396)
(398 397)
(399 398)
(368 399)
(375 374)
(383 381)
(373 400)
(400 401)
(402 372)
(403 402)
(404 403)
(405 404)
(406 405)
(394 406)
(407 408)
(91 92)
(92 90)
(91 93)
(93 94)
(96 97)
(408 409)
(410 407)
(1 107)
(107 106)
(112 111)
(110 112)
(106 111)
(409 401)
(0 411)
(412 410)
(411 412)
(116 115)
(117 114)
(117 113)
(90 113)
(119 93)
(124 117)
(125 117)
(125 90)
(413 414)
(414 415)
(415 416)
(416 417)
(417 418)
(418 419)
(419 420)
(420 421)
(421 422)
(422 127)
(129 106)
(128 106)
(128 1)
(112 129)
(112 131)
(0 423)
(423 424)
(424 425)
(425 426)
(426 427)
(427 413)
(120 97)
(116 121)
(116 120)
(91 118)
(90 118)
(27 371)
(370 428)
(16 428)
(66 65)
(90 91)
(93 92)
(94 92)
(96 98)
(106 1)
(110 111)
(93 112)
(107 111)
(114 113)
(96 115)
(116 117)
(117 90)
(93 118)
(121 120)
(116 124)
(128 129)
(131 129)
(132 120)
(2 1)
(1 3)
(4 1)
(133 8)
(9 133)
(11 10)
(12 134)
(14 135)
(135 13)
(17 15)
(136 137)
(137 19)
(20 138)
(138 13)
(139 140)
(141 139)
(140 142)
(142 141)
(13 136)
(18 20)
(21 143)
(143 18)
(22 21)
(144 12)
(23 144)
(145 146)
(146 147)
(148 149)
(147 150)
(150 151)
(152 26)
(26 145)
(149 23)
(25 153)
(27 154)
(155 21)
(21 28)
(28 155)
(28 22)
(29 156)
(156 25)
(157 29)
(10 157)
(158 159)
(159 24)
(24 27)
(154 28)
(160 158)
(151 160)
(153 148)
(10 30)
(30 161)
(161 10)
(162 163)
(31 162)
(163 164)
(165 32)
(33 9)
(164 33)
(34 166)
(167 35)
(35 34)
(168 35)
(35 169)
(169 168)
(36 37)
(37 170)
(171 172)
(172 173)
(173 171)
(170 174)
(175 176)
(166 175)
(176 165)
(32 31)
(177 38)
(38 178)
(40 179)
(180 181)
(41 182)
(183 41)
(42 183)
(178 184)
(43 185)
(186 187)
(187 44)
(44 186)
(188 189)
(189 190)
(190 188)
(191 14)
(13 191)
(192 7)
(6 192)
(45 6)
(193 45)
(46 16)
(47 46)
(15 47)
(194 195)
(195 196)
(196 197)
(197 48)
(16 194)
(48 193)
(7 44)
(44 49)
(49 5)
(50 51)
(198 50)
(199 198)
(49 199)
(51 200)
(52 49)
(5 52)
(19 201)
(201 17)
(202 43)
(203 202)
(204 203)
(205 204)
(206 53)
(53 54)
(54 207)
(207 208)
(208 205)
(209 167)
(35 209)
(174 35)
(184 210)
(210 36)
(55 40)
(181 55)
(56 42)
(57 56)
(185 57)
(200 206)
(182 39)
(39 180)
(179 177)
(211 59)
(212 60)
(213 60)
(60 61)
(61 213)
(62 212)
(63 62)
(61 62)
(62 64)
(64 63)
(65 214)
(214 66)
(215 65)
(216 217)
(218 68)
(217 219)
(220 221)
(219 222)
(221 218)
(68 223)
(223 224)
(134 225)
(66 226)
(226 67)
(67 216)
(227 228)
(229 152)
(225 230)
(230 231)
(70 232)
(232 71)
(71 233)
(233 72)
(222 229)
(231 220)
(224 234)
(234 73)
(73 70)
(8 74)
(75 235)
(235 76)
(76 77)
(236 237)
(237 238)
(74 75)
(77 239)
(239 236)
(240 241)
(241 242)
(243 244)
(245 243)
(246 247)
(242 245)
(238 248)
(248 240)
(244 246)
(59 78)
(78 211)
(249 78)
(250 249)
(251 79)
(78 80)
(80 252)
(252 81)
(81 251)
(83 82)
(79 83)
(253 84)
(254 85)
(85 84)
(84 254)
(84 255)
(256 257)
(257 86)
(255 258)
(258 85)
(85 256)
(259 253)
(82 259)
(260 261)
(261 58)
(58 262)
(262 87)
(263 264)
(265 61)
(64 265)
(266 64)
(264 266)
(267 263)
(247 250)
(86 88)
(88 268)
(268 269)
(87 267)
(60 215)
(228 69)
(269 270)
(270 260)
(271 272)
(89 273)
(274 89)
(95 96)
(98 97)
(99 275)
(276 99)
(275 100)
(100 277)
(278 101)
(101 102)
(102 279)
(279 103)
(103 280)
(280 276)
(281 282)
(282 283)
(283 284)
(284 285)
(285 286)
(286 287)
(287 104)
(104 278)
(69 105)
(105 288)
(288 227)
(72 71)
(71 281)
(289 290)
(291 289)
(1 108)
(108 107)
(272 292)
(293 271)
(294 293)
(295 294)
(296 295)
(297 296)
(108 297)
(298 108)
(299 300)
(300 301)
(301 302)
(303 299)
(304 303)
(305 304)
(306 305)
(292 306)
(302 307)
(307 308)
(308 309)
(309 310)
(310 311)
(311 312)
(312 4)
(3 2)
(109 110)
(110 94)
(313 109)
(107 109)
(109 298)
(113 274)
(314 114)
(290 314)
(277 98)
(115 291)
(96 116)
(114 115)
(315 113)
(89 315)
(94 89)
(273 313)
(316 317)
(318 316)
(319 318)
(118 119)
(320 121)
(321 122)
(122 322)
(322 123)
(123 323)
(323 324)
(324 325)
(325 326)
(326 327)
(327 328)
(328 329)
(329 30)
(30 11)
(330 320)
(124 125)
(331 126)
(126 332)
(333 331)
(334 333)
(335 334)
(336 335)
(337 336)
(338 337)
(339 338)
(340 339)
(341 340)
(342 341)
(343 342)
(344 343)
(345 344)
(346 345)
(347 346)
(127 348)
(348 349)
(349 350)
(350 351)
(351 347)
(130 128)
(128 126)
(126 1)
(131 130)
(130 352)
(97 132)
(132 353)
(353 321)
(354 330)
(121 124)
(116 95)
(355 118)
(125 355)
(317 354)
(119 131)
(352 319)
(332 130)
(1 127)
)

// * * * * * * * * * * * * * * * * * * * * * * * * * * * * * * * * * * * * * //


// ************************************************************************* //
