/*--------------------------------*- C++ -*----------------------------------*\
| =========                 |                                                 |
| \\      /  F ield         | OpenFOAM: The Open Source CFD Toolbox           |
|  \\    /   O peration     | Version:  v2012                                 |
|   \\  /    A nd           | Website:  www.openfoam.com                      |
|    \\/     M anipulation  |                                                 |
\*---------------------------------------------------------------------------*/
FoamFile
{
    version     2.0;
    format      ascii;
    class       featureEdgeMesh;
    location    "constant/triSurface";
    object      wing.eMesh;
}
// * * * * * * * * * * * * * * * * * * * * * * * * * * * * * * * * * * * * * //


// points:

326
(
(0.005 0.0596656 0.0146585)
(1.005 0.0596656 0.0146585)
(0.005 0.0607064 0.0134072)
(1.005 0.0607064 0.0134072)
(0.005 0.0621611 0.0143078)
(1.005 0.0621611 0.0143078)
(0.005 0.0596704 0.0145483)
(1.005 0.0596704 0.0145483)
(0.005 0.0596847 0.0144389)
(1.005 0.0596847 0.0144389)
(0.005 0.0597084 0.0143311)
(1.005 0.0597084 0.0143311)
(0.005 0.0597413 0.0142258)
(1.005 0.0597413 0.0142258)
(0.005 0.0597833 0.0141237)
(1.005 0.0597833 0.0141237)
(0.005 0.059834 0.0140257)
(1.005 0.059834 0.0140257)
(0.005 0.0598929 0.0139325)
(1.005 0.0598929 0.0139325)
(0.005 0.0599597 0.0138446)
(1.005 0.0599597 0.0138446)
(0.005 0.0600339 0.0137629)
(1.005 0.0600339 0.0137629)
(0.005 0.0601149 0.013688)
(1.005 0.0601149 0.013688)
(0.005 0.060202 0.0136203)
(1.005 0.060202 0.0136203)
(0.005 0.0602947 0.0135605)
(1.005 0.0602947 0.0135605)
(0.005 0.0603923 0.0135089)
(1.005 0.0603923 0.0135089)
(0.005 0.0604939 0.0134659)
(1.005 0.0604939 0.0134659)
(0.005 0.0605989 0.0134319)
(1.005 0.0605989 0.0134319)
(0.005 0.0608157 0.0133918)
(1.005 0.0608157 0.0133918)
(0.005 0.0609259 0.013386)
(1.005 0.0609259 0.013386)
(0.005 0.0610361 0.0133897)
(1.005 0.0610361 0.0133897)
(0.005 0.0611457 0.013403)
(1.005 0.0611457 0.013403)
(0.005 0.0612537 0.0134257)
(1.005 0.0612537 0.0134257)
(0.005 0.0613593 0.0134577)
(1.005 0.0613593 0.0134577)
(0.005 0.0614617 0.0134987)
(1.005 0.0614617 0.0134987)
(0.005 0.0615602 0.0135484)
(1.005 0.0615602 0.0135484)
(0.005 0.061654 0.0136065)
(1.005 0.061654 0.0136065)
(0.005 0.0617425 0.0136725)
(1.005 0.0617425 0.0136725)
(0.005 0.0618248 0.0137459)
(1.005 0.0618248 0.0137459)
(0.005 0.0619005 0.0138262)
(1.005 0.0619005 0.0138262)
(0.005 0.061969 0.0139127)
(1.005 0.061969 0.0139127)
(0.005 0.0620297 0.0140049)
(1.005 0.0620297 0.0140049)
(0.005 0.0620822 0.014102)
(1.005 0.0620822 0.014102)
(0.005 0.0621261 0.0142032)
(1.005 0.0621261 0.0142032)
(0.005 0.200087 1.00475)
(0.005 0.19708 1.00485)
(1.005 0.19708 1.00485)
(1.005 0.200087 1.00475)
(0.005 0.195931 1.00478)
(1.005 0.195931 1.00478)
(0.005 0.19488 1.00463)
(1.005 0.19488 1.00463)
(0.005 0.193795 1.0044)
(1.005 0.193795 1.0044)
(0.005 0.192585 1.00404)
(1.005 0.192585 1.00404)
(0.005 0.190931 1.00341)
(1.005 0.190931 1.00341)
(0.005 0.18931 1.00265)
(1.005 0.18931 1.00265)
(0.005 0.187542 1.00165)
(1.005 0.187542 1.00165)
(0.005 0.185679 1.00041)
(1.005 0.185679 1.00041)
(0.005 0.183672 0.99885)
(1.005 0.183672 0.99885)
(0.005 0.180909 0.996346)
(1.005 0.180909 0.996346)
(0.005 0.177657 0.992878)
(1.005 0.177657 0.992878)
(0.005 0.173703 0.987917)
(1.005 0.173703 0.987917)
(0.005 0.168737 0.980549)
(1.005 0.168737 0.980549)
(0.005 0.162351 0.969238)
(1.005 0.162351 0.969238)
(0.005 0.154631 0.952788)
(1.005 0.154631 0.952788)
(0.005 0.143621 0.923878)
(1.005 0.143621 0.923878)
(0.005 0.132175 0.886361)
(1.005 0.132175 0.886361)
(0.005 0.120491 0.838777)
(1.005 0.120491 0.838777)
(0.005 0.109119 0.780998)
(1.005 0.109119 0.780998)
(0.005 0.106408 0.765147)
(1.005 0.106408 0.765147)
(0.005 0.0965173 0.698559)
(1.005 0.0965173 0.698559)
(0.005 0.0879529 0.626323)
(1.005 0.0879529 0.626323)
(0.005 0.0800997 0.542417)
(1.005 0.0800997 0.542417)
(0.005 0.0746086 0.46864)
(1.005 0.0746086 0.46864)
(0.005 0.0682445 0.35754)
(1.005 0.0682445 0.35754)
(0.005 0.0632561 0.232128)
(1.005 0.0632561 0.232128)
(0.005 0.0601668 0.092266)
(1.005 0.0601668 0.092266)
(0.005 0.0948992 0.132875)
(1.005 0.0948992 0.132875)
(0.005 0.127687 0.260413)
(1.005 0.127687 0.260413)
(0.005 0.157313 0.384597)
(1.005 0.157313 0.384597)
(0.005 0.181036 0.493101)
(1.005 0.181036 0.493101)
(0.005 0.193858 0.557266)
(1.005 0.193858 0.557266)
(0.005 0.20879 0.640733)
(1.005 0.20879 0.640733)
(0.005 0.219611 0.712727)
(1.005 0.219611 0.712727)
(0.005 0.227592 0.781978)
(1.005 0.227592 0.781978)
(0.005 0.23147 0.834039)
(1.005 0.23147 0.834039)
(0.005 0.232779 0.87815)
(1.005 0.232779 0.87815)
(0.005 0.231792 0.916582)
(1.005 0.231792 0.916582)
(0.005 0.229196 0.944285)
(1.005 0.229196 0.944285)
(0.005 0.226169 0.96216)
(1.005 0.226169 0.96216)
(0.005 0.223658 0.972463)
(1.005 0.223658 0.972463)
(0.005 0.221009 0.98075)
(1.005 0.221009 0.98075)
(0.005 0.218791 0.986243)
(1.005 0.218791 0.986243)
(0.005 0.216758 0.990384)
(1.005 0.216758 0.990384)
(0.005 0.214895 0.993559)
(1.005 0.214895 0.993559)
(0.005 0.213221 0.995979)
(1.005 0.213221 0.995979)
(0.005 0.211676 0.997884)
(1.005 0.211676 0.997884)
(0.005 0.210194 0.999448)
(1.005 0.210194 0.999448)
(0.005 0.20875 1.00075)
(1.005 0.20875 1.00075)
(0.005 0.207385 1.0018)
(1.005 0.207385 1.0018)
(0.005 0.206215 1.00257)
(1.005 0.206215 1.00257)
(0.005 0.20517 1.00315)
(1.005 0.20517 1.00315)
(0.005 0.204209 1.00359)
(1.005 0.204209 1.00359)
(0.005 0.203159 1.00397)
(1.005 0.203159 1.00397)
(0.005 0.201428 1.00444)
(1.005 0.201428 1.00444)
(1.005 0.139789 0.485895)
(1.005 0.137733 0.485167)
(1.005 0.141773 0.4868)
(1.005 0.126944 0.484318)
(1.005 0.1248 0.484716)
(1.005 0.122698 0.485298)
(1.005 0.120655 0.486062)
(1.005 0.118687 0.487001)
(1.005 0.117176 0.530276)
(1.005 0.119074 0.53135)
(1.005 0.129115 0.484109)
(1.005 0.116808 0.488108)
(1.005 0.115032 0.489374)
(1.005 0.113374 0.490791)
(1.005 0.111845 0.492346)
(1.005 0.15518 0.505595)
(1.005 0.154783 0.503451)
(1.005 0.155389 0.507766)
(1.005 0.147152 0.490496)
(1.005 0.145469 0.489109)
(1.005 0.143672 0.487873)
(1.005 0.135622 0.484621)
(1.005 0.13347 0.484261)
(1.005 0.131296 0.48409)
(1.005 0.121059 0.532254)
(1.005 0.123114 0.532982)
(1.005 0.125226 0.533528)
(1.005 0.127377 0.533888)
(1.005 0.129551 0.53406)
(1.005 0.109457 0.522691)
(1.005 0.110723 0.524466)
(1.005 0.136047 0.533434)
(1.005 0.138149 0.532851)
(1.005 0.140192 0.532087)
(1.005 0.142161 0.531148)
(1.005 0.149002 0.525803)
(1.005 0.15039 0.52412)
(1.005 0.151625 0.522323)
(1.005 0.152699 0.520424)
(1.005 0.153603 0.51844)
(1.005 0.154331 0.516384)
(1.005 0.11214 0.526125)
(1.005 0.113695 0.527653)
(1.005 0.115378 0.529041)
(1.005 0.131732 0.534041)
(1.005 0.1542 0.501349)
(1.005 0.153436 0.499306)
(1.005 0.152497 0.497338)
(1.005 0.15139 0.495459)
(1.005 0.150124 0.493683)
(1.005 0.148707 0.492025)
(1.005 0.110458 0.494029)
(1.005 0.109222 0.495827)
(1.005 0.108149 0.497725)
(1.005 0.107244 0.49971)
(1.005 0.106516 0.501765)
(1.005 0.10597 0.503877)
(1.005 0.133903 0.533831)
(1.005 0.154877 0.514273)
(1.005 0.155237 0.512121)
(1.005 0.155408 0.509947)
(1.005 0.14404 0.530042)
(1.005 0.145815 0.528775)
(1.005 0.147474 0.527359)
(1.005 0.10561 0.506028)
(1.005 0.105439 0.508202)
(1.005 0.105458 0.510383)
(1.005 0.105667 0.512554)
(1.005 0.106064 0.514699)
(1.005 0.106647 0.5168)
(1.005 0.107411 0.518843)
(1.005 0.10835 0.520811)
(0.005 0.140192 0.532087)
(0.005 0.138149 0.532851)
(0.005 0.120655 0.486062)
(0.005 0.122698 0.485298)
(0.005 0.118687 0.487001)
(0.005 0.116808 0.488108)
(0.005 0.135622 0.484621)
(0.005 0.137733 0.485167)
(0.005 0.139789 0.485895)
(0.005 0.121059 0.532254)
(0.005 0.119074 0.53135)
(0.005 0.123114 0.532982)
(0.005 0.141773 0.4868)
(0.005 0.143672 0.487873)
(0.005 0.145469 0.489109)
(0.005 0.125226 0.533528)
(0.005 0.127377 0.533888)
(0.005 0.129551 0.53406)
(0.005 0.110458 0.494029)
(0.005 0.111845 0.492346)
(0.005 0.113374 0.490791)
(0.005 0.115032 0.489374)
(0.005 0.142161 0.531148)
(0.005 0.14404 0.530042)
(0.005 0.136047 0.533434)
(0.005 0.131732 0.534041)
(0.005 0.126944 0.484318)
(0.005 0.129115 0.484109)
(0.005 0.131296 0.48409)
(0.005 0.13347 0.484261)
(0.005 0.15139 0.495459)
(0.005 0.152497 0.497338)
(0.005 0.153436 0.499306)
(0.005 0.154877 0.514273)
(0.005 0.154331 0.516384)
(0.005 0.153603 0.51844)
(0.005 0.152699 0.520424)
(0.005 0.151625 0.522323)
(0.005 0.15039 0.52412)
(0.005 0.133903 0.533831)
(0.005 0.147152 0.490496)
(0.005 0.148707 0.492025)
(0.005 0.150124 0.493683)
(0.005 0.1542 0.501349)
(0.005 0.154783 0.503451)
(0.005 0.15518 0.505595)
(0.005 0.117176 0.530276)
(0.005 0.115378 0.529041)
(0.005 0.113695 0.527653)
(0.005 0.11214 0.526125)
(0.005 0.110723 0.524466)
(0.005 0.109457 0.522691)
(0.005 0.10835 0.520811)
(0.005 0.1248 0.484716)
(0.005 0.155389 0.507766)
(0.005 0.155408 0.509947)
(0.005 0.155237 0.512121)
(0.005 0.10561 0.506028)
(0.005 0.10597 0.503877)
(0.005 0.106516 0.501765)
(0.005 0.107244 0.49971)
(0.005 0.108149 0.497725)
(0.005 0.109222 0.495827)
(0.005 0.149002 0.525803)
(0.005 0.147474 0.527359)
(0.005 0.145815 0.528775)
(0.005 0.107411 0.518843)
(0.005 0.106647 0.5168)
(0.005 0.106064 0.514699)
(0.005 0.105667 0.512554)
(0.005 0.105458 0.510383)
(0.005 0.105439 0.508202)
)


// edges:

330
(
(68 69)
(70 71)
(69 72)
(73 70)
(72 74)
(75 73)
(74 76)
(77 75)
(76 78)
(79 77)
(78 80)
(81 79)
(80 82)
(83 81)
(82 84)
(85 83)
(84 86)
(87 85)
(86 88)
(89 87)
(88 90)
(91 89)
(90 92)
(93 91)
(92 94)
(95 93)
(94 96)
(97 95)
(96 98)
(99 97)
(98 100)
(101 99)
(100 102)
(103 101)
(102 104)
(105 103)
(104 106)
(107 105)
(106 108)
(109 107)
(108 110)
(111 109)
(110 112)
(113 111)
(112 114)
(115 113)
(114 116)
(117 115)
(116 118)
(119 117)
(118 120)
(121 119)
(120 122)
(123 121)
(122 124)
(125 123)
(124 0)
(1 125)
(4 126)
(127 5)
(126 128)
(129 127)
(128 130)
(131 129)
(130 132)
(133 131)
(132 134)
(135 133)
(134 136)
(137 135)
(136 138)
(139 137)
(138 140)
(141 139)
(140 142)
(143 141)
(142 144)
(145 143)
(144 146)
(147 145)
(146 148)
(149 147)
(148 150)
(151 149)
(150 152)
(153 151)
(152 154)
(155 153)
(154 156)
(157 155)
(156 158)
(159 157)
(158 160)
(161 159)
(160 162)
(163 161)
(162 164)
(165 163)
(164 166)
(167 165)
(166 168)
(169 167)
(168 170)
(171 169)
(170 172)
(173 171)
(172 174)
(175 173)
(174 176)
(177 175)
(176 178)
(179 177)
(178 180)
(181 179)
(180 68)
(71 181)
(182 183)
(184 182)
(185 186)
(186 187)
(187 188)
(188 189)
(190 191)
(192 185)
(189 193)
(193 194)
(194 195)
(195 196)
(197 198)
(199 197)
(200 201)
(201 202)
(202 184)
(183 203)
(203 204)
(204 205)
(205 192)
(191 206)
(206 207)
(207 208)
(208 209)
(209 210)
(211 212)
(213 214)
(215 216)
(214 215)
(217 218)
(218 219)
(219 220)
(220 221)
(221 222)
(212 223)
(223 224)
(224 225)
(225 190)
(210 226)
(198 227)
(227 228)
(228 229)
(229 230)
(230 231)
(231 232)
(232 200)
(196 233)
(233 234)
(234 235)
(235 236)
(236 237)
(237 238)
(239 213)
(222 240)
(240 241)
(241 242)
(242 199)
(226 239)
(216 243)
(243 244)
(244 245)
(245 217)
(238 246)
(246 247)
(247 248)
(248 249)
(249 250)
(250 251)
(251 252)
(252 253)
(253 211)
(254 255)
(256 257)
(258 256)
(259 258)
(260 261)
(261 262)
(263 264)
(265 263)
(262 266)
(266 267)
(267 268)
(269 265)
(270 269)
(271 270)
(272 273)
(273 274)
(274 275)
(275 259)
(276 254)
(277 276)
(255 278)
(279 271)
(280 281)
(281 282)
(282 283)
(283 260)
(284 285)
(285 286)
(287 288)
(288 289)
(289 290)
(290 291)
(291 292)
(293 279)
(268 294)
(294 295)
(295 296)
(296 284)
(286 297)
(297 298)
(298 299)
(278 293)
(264 300)
(300 301)
(301 302)
(302 303)
(303 304)
(304 305)
(305 306)
(257 307)
(307 280)
(299 308)
(308 309)
(309 310)
(310 287)
(311 312)
(312 313)
(313 314)
(314 315)
(315 316)
(316 272)
(292 317)
(317 318)
(318 319)
(319 277)
(306 320)
(320 321)
(321 322)
(322 323)
(323 324)
(324 325)
(325 311)
(0 6)
(7 1)
(6 8)
(9 7)
(8 10)
(11 9)
(10 12)
(13 11)
(12 14)
(15 13)
(14 16)
(17 15)
(16 18)
(19 17)
(18 20)
(21 19)
(20 22)
(23 21)
(22 24)
(25 23)
(24 26)
(27 25)
(26 28)
(29 27)
(28 30)
(31 29)
(30 32)
(33 31)
(32 34)
(35 33)
(34 2)
(3 35)
(2 36)
(37 3)
(36 38)
(39 37)
(38 40)
(41 39)
(40 42)
(43 41)
(42 44)
(45 43)
(44 46)
(47 45)
(46 48)
(49 47)
(48 50)
(51 49)
(50 52)
(53 51)
(52 54)
(55 53)
(54 56)
(57 55)
(56 58)
(59 57)
(58 60)
(61 59)
(60 62)
(63 61)
(62 64)
(65 63)
(64 66)
(67 65)
(66 4)
(5 67)
(1 3)
(3 5)
(4 2)
(2 0)
)

// * * * * * * * * * * * * * * * * * * * * * * * * * * * * * * * * * * * * * //


// ************************************************************************* //
