/*--------------------------------*- C++ -*----------------------------------*\
| =========                 |                                                 |
| \\      /  F ield         | OpenFOAM: The Open Source CFD Toolbox           |
|  \\    /   O peration     | Version:  v2012                                 |
|   \\  /    A nd           | Website:  www.openfoam.com                      |
|    \\/     M anipulation  |                                                 |
\*---------------------------------------------------------------------------*/
FoamFile
{
    version     2.0;
    format      ascii;
    class       volScalarField;
    location    "0";
    object      omega;
}
// * * * * * * * * * * * * * * * * * * * * * * * * * * * * * * * * * * * * * //

dimensions      [0 0 -1 0 0 0 0];

internalField   uniform 6.12e-2;

boundaryField
{
    wall1
    {
        type            omegaWallFunction;
        value           $internalField;
    }
	
	wall2
    {
        type            omegaWallFunction;
        value           $internalField;
    }
	
	cylinder
    {
        type            omegaWallFunction;
        value           $internalField;
    }
	
    inlet
    {
        type            turbulentMixingLengthFrequencyInlet;
        mixingLength    1.2;
        value           $internalField;
    }
	
    outlet
    {
        type            zeroGradient;
    }
	
    defaultFaces
    {
        type            empty;
    }
}


// ************************************************************************* //
