/*--------------------------------*- C++ -*----------------------------------*\
| =========                 |                                                 |
| \\      /  F ield         | OpenFOAM: The Open Source CFD Toolbox           |
|  \\    /   O peration     | Version:  v2012                                 |
|   \\  /    A nd           | Website:  www.openfoam.com                      |
|    \\/     M anipulation  |                                                 |
\*---------------------------------------------------------------------------*/
FoamFile
{
    version     2.0;
    format      ascii;
    class       dictionary;
    object      snappyHexMeshDict;
}
// * * * * * * * * * * * * * * * * * * * * * * * * * * * * * * * * * * * * * //

castellatedMesh true;
snap            true;
addLayers       true;

geometry
{
    AMI.stl{ type triSurfaceMesh; name AMI;}
    wing.stl{ type triSurfaceMesh; name wing;}
}

castellatedMeshControls
{
    maxLocalCells 100000;
    maxGlobalCells 8000000;
    minRefinementCells 0;
    maxLoadUnbalance 0.10;
    nCellsBetweenLevels 2;

    features
    (
        { file "AMI.eMesh"; level 2;}
        { file "wing.eMesh"; level 4;} 
    );

    refinementSurfaces
    {
        AMI
        {
            level (2 2); 
            faceType boundary;
            cellZone rotatingZone;
            faceZone rotatingZone;
            cellZoneInside inside;
        }
		
        wing
		{ 
			level (4 4);
		} 
    }

    resolveFeatureAngle 20;

    refinementRegions
    {
        // Note: for better mesh quality utilize this refinement region
        // AMI{ mode inside; levels ((1E15 2));}
    }

    locationInMesh (0.1 0.0 0.01);
    allowFreeStandingZoneFaces false;
}

snapControls
{
    nSmoothPatch 3;
    tolerance 4.0;
    nSolveIter 300;
    nRelaxIter 5;
    nFeatureSnapIter 10;
    implicitFeatureSnap true;
    explicitFeatureSnap false;
    multiRegionFeatureSnap true;
}

addLayersControls
{
    relativeSizes true;

    layers
    {
		"wing"
		 {
			nSurfaceLayers 10;
		 }
    }

    expansionRatio 1.2;
    finalLayerThickness 0.3;
    minThickness 0.1;
    nGrow 0;
    featureAngle 30;
    nRelaxIter 3;
    nSmoothSurfaceNormals 1;
    nSmoothNormals 3;
    nSmoothThickness 10;
    maxFaceThicknessRatio 0.5;
    maxThicknessToMedialRatio 0.3;
    minMedialAxisAngle 90;
    nBufferCellsNoExtrude 0;
    nLayerIter 100;
}

meshQualityControls
{
    maxNonOrtho 65;
    maxBoundarySkewness 20;
    maxInternalSkewness 4;
    maxConcave 80;
    minVol 1e-13;
    minTetQuality -1;
    minArea -1;
    minTwist 0.01;
    minDeterminant 0.001;
    minFaceWeight 0.05;
    minVolRatio 0.01;
    minTriangleTwist -1;
    nSmoothScale 4;
    errorReduction 0.75;
    relaxed
    {
        maxNonOrtho 75;
    }
}

mergeTolerance 1e-6;

// ************************************************************************* //
